Version 4
SHEET 1 1748 960
WIRE -96 48 -176 48
WIRE -32 48 -96 48
WIRE 16 48 -32 48
WIRE 368 48 304 48
WIRE 368 64 368 48
WIRE -96 96 -96 48
WIRE -32 144 -32 48
WIRE 16 144 -32 144
WIRE 368 144 368 128
WIRE 368 144 304 144
WIRE 432 144 368 144
WIRE 560 144 512 144
WIRE 640 144 560 144
WIRE 784 144 640 144
WIRE 848 144 784 144
WIRE 880 144 848 144
WIRE 640 192 640 144
WIRE -96 240 -96 160
WIRE -80 240 -96 240
WIRE 16 240 -16 240
WIRE 560 240 560 144
WIRE 560 240 304 240
WIRE -176 288 -176 48
WIRE 880 320 880 144
WIRE 640 336 640 272
WIRE 640 336 304 336
WIRE 784 336 784 144
WIRE 640 432 640 336
WIRE -96 528 -96 240
WIRE -80 528 -96 528
WIRE 16 528 0 528
WIRE 336 528 304 528
WIRE 560 528 560 240
WIRE 560 528 416 528
WIRE -176 624 -176 368
WIRE -96 624 -96 528
WIRE -96 624 -176 624
WIRE 160 624 160 576
WIRE 160 624 -96 624
WIRE 640 624 640 512
WIRE 640 624 160 624
WIRE 784 624 784 400
WIRE 784 624 640 624
WIRE 880 624 880 400
WIRE 880 624 784 624
WIRE -176 656 -176 624
FLAG 848 144 OUT
FLAG -176 656 0
SYMBOL ind 416 160 R270
WINDOW 0 32 56 VTop 2
WINDOW 3 5 56 VBottom 2
SYMATTR InstName L1
SYMATTR Value 47µ
SYMATTR SpiceLine Rser=1
SYMBOL cap 768 336 R0
SYMATTR InstName C1
SYMATTR Value 4.7µ
SYMBOL res 624 416 R0
SYMATTR InstName R1
SYMATTR Value 301k
SYMBOL res 16 512 R90
WINDOW 0 0 56 VBottom 2
WINDOW 3 32 56 VTop 2
SYMATTR InstName R2
SYMATTR Value 18.2k
SYMBOL voltage -176 272 R0
WINDOW 123 0 0 Left 0
WINDOW 39 0 0 Left 0
WINDOW 0 -70 30 Left 2
WINDOW 3 -70 77 Left 2
SYMATTR InstName V1
SYMATTR Value 24
SYMBOL res 432 512 R90
WINDOW 0 0 56 VBottom 2
WINDOW 3 32 56 VTop 2
SYMATTR InstName R3
SYMATTR Value 100k
SYMBOL res 624 176 R0
SYMATTR InstName R4
SYMATTR Value 1.62Meg
SYMBOL res 864 304 R0
SYMATTR InstName Rload
SYMATTR Value 50
SYMBOL LT8618 160 240 R0
SYMATTR InstName U1
SYMBOL cap 352 64 R0
SYMATTR InstName C2
SYMATTR Value 47n
SYMBOL cap -16 224 R90
WINDOW 0 0 32 VBottom 2
WINDOW 3 32 32 VTop 2
SYMATTR InstName C3
SYMATTR Value 1µ
SYMBOL cap -112 96 R0
SYMATTR InstName C4
SYMATTR Value 22µ
TEXT 40 784 Left 2 !.tran 2m startup uic
TEXT 40 680 Left 2 !.OPTIONS ABSTOL=1e-6 VNTOL=1e-6 RELTOL=0.01\n.OPTIONS METHOD=Gear\n.OPTIONS GMIN=1e-12
