Version 4
SHEET 1 1748 1048
WIRE -784 48 -928 48
WIRE -720 48 -784 48
WIRE -576 48 -640 48
WIRE -448 48 -576 48
WIRE -304 48 -368 48
WIRE -144 48 -224 48
WIRE -32 48 -144 48
WIRE 16 48 -32 48
WIRE 368 48 304 48
WIRE 368 64 368 48
WIRE -784 80 -784 48
WIRE -576 80 -576 48
WIRE -144 112 -144 48
WIRE -32 144 -32 48
WIRE 16 144 -32 144
WIRE 368 144 368 128
WIRE 368 144 304 144
WIRE 480 144 368 144
WIRE 592 144 560 144
WIRE 672 144 592 144
WIRE 864 144 672 144
WIRE 1008 144 864 144
WIRE -576 160 -576 144
WIRE -576 160 -640 160
WIRE -784 176 -784 144
WIRE -576 176 -576 160
WIRE 672 192 672 144
WIRE -928 240 -928 48
WIRE -144 240 -144 176
WIRE -96 240 -144 240
WIRE 16 240 -32 240
WIRE 592 240 592 144
WIRE 592 240 304 240
WIRE -784 288 -784 256
WIRE -672 288 -784 288
WIRE -576 288 -576 256
WIRE -576 288 -672 288
WIRE -784 320 -784 288
WIRE -576 320 -576 288
WIRE 864 320 864 144
WIRE 1008 320 1008 144
WIRE -672 336 -672 288
WIRE 672 336 672 272
WIRE 672 336 304 336
WIRE -576 416 -576 400
WIRE -576 416 -640 416
WIRE -784 432 -784 400
WIRE -576 432 -576 416
WIRE 672 432 672 336
WIRE -928 528 -928 320
WIRE -784 528 -784 496
WIRE -784 528 -928 528
WIRE -720 528 -784 528
WIRE -576 528 -576 496
WIRE -576 528 -640 528
WIRE -432 528 -576 528
WIRE -304 528 -352 528
WIRE -144 528 -144 240
WIRE -144 528 -224 528
WIRE -96 528 -144 528
WIRE 16 528 -16 528
WIRE 336 528 304 528
WIRE 592 528 592 240
WIRE 592 528 416 528
WIRE -144 624 -144 528
WIRE 160 624 160 576
WIRE 160 624 -144 624
WIRE 672 624 672 512
WIRE 672 624 160 624
WIRE 864 624 864 384
WIRE 864 624 672 624
WIRE 1008 624 1008 400
WIRE 1008 624 864 624
FLAG -640 160 V1
IOPIN -640 160 In
FLAG -640 416 V2
IOPIN -640 416 In
FLAG -672 336 0
SYMBOL ind 464 160 R270
WINDOW 0 32 56 VTop 2
WINDOW 3 5 56 VBottom 2
SYMATTR InstName L1
SYMATTR Value 47µ
SYMATTR SpiceLine Rser=1
SYMBOL cap 848 320 R0
SYMATTR InstName C1
SYMATTR Value 4.7µ
SYMBOL res 656 416 R0
SYMATTR InstName R1
SYMATTR Value 301k
SYMBOL res 0 512 R90
WINDOW 0 0 56 VBottom 2
WINDOW 3 32 56 VTop 2
SYMATTR InstName R2
SYMATTR Value 18.2k
SYMBOL res 432 512 R90
WINDOW 0 0 56 VBottom 2
WINDOW 3 32 56 VTop 2
SYMATTR InstName R3
SYMATTR Value 100k
SYMBOL res 656 176 R0
SYMATTR InstName R4
SYMATTR Value 1.62Meg
SYMBOL res 992 304 R0
SYMATTR InstName Rload
SYMATTR Value 50
SYMBOL LT8618 160 240 R0
SYMATTR InstName U1
SYMBOL cap 352 64 R0
SYMATTR InstName C2
SYMATTR Value 47n
SYMBOL cap -32 224 R90
WINDOW 0 0 32 VBottom 2
WINDOW 3 32 32 VTop 2
SYMATTR InstName C3
SYMATTR Value 1µ
SYMBOL voltage -928 224 R0
WINDOW 123 0 0 Left 2
WINDOW 39 0 0 Left 2
WINDOW 0 -66 31 Left 2
WINDOW 3 -27 421 Left 2
SYMATTR InstName V2
SYMATTR Value PULSE(0 24 1u 100us 0 1)
SYMBOL cap -160 112 R0
SYMATTR InstName C4
SYMATTR Value 22µ
SYMBOL ind -736 64 R270
WINDOW 0 32 56 VTop 2
WINDOW 3 5 56 VBottom 2
SYMATTR InstName L2
SYMATTR Value 50µH
SYMBOL ind -464 64 R270
WINDOW 0 32 56 VTop 2
WINDOW 3 5 56 VBottom 2
SYMATTR InstName L3
SYMATTR Value 900nH
SYMBOL ind -624 512 R90
WINDOW 0 5 56 VBottom 2
WINDOW 3 32 56 VTop 2
SYMATTR InstName L4
SYMATTR Value 50µH
SYMBOL ind -336 512 R90
WINDOW 0 5 56 VBottom 2
WINDOW 3 32 56 VTop 2
SYMATTR InstName L5
SYMATTR Value 900nH
SYMBOL cap -800 80 R0
SYMATTR InstName C5
SYMATTR Value 8µF
SYMBOL res -800 160 R0
SYMATTR InstName R5
SYMATTR Value 5
SYMBOL cap -800 432 R0
SYMATTR InstName C6
SYMATTR Value 8µF
SYMBOL res -800 304 R0
SYMATTR InstName R6
SYMATTR Value 5
SYMBOL cap -592 80 R0
SYMATTR InstName C7
SYMATTR Value 250nF
SYMBOL res -592 160 R0
SYMATTR InstName R7
SYMATTR Value 50
SYMBOL cap -592 432 R0
SYMATTR InstName C8
SYMATTR Value 250nF
SYMBOL res -592 304 R0
SYMATTR InstName R8
SYMATTR Value 50
SYMBOL res -208 512 R90
WINDOW 0 0 56 VBottom 2
WINDOW 3 32 56 VTop 2
SYMATTR InstName R9
SYMATTR Value 0.001
SYMBOL res -208 32 R90
WINDOW 0 0 56 VBottom 2
WINDOW 3 32 56 VTop 2
SYMATTR InstName R10
SYMATTR Value 0.001
TEXT -192 832 Left 2 !.tran 2m startup uic
TEXT -696 -64 Left 3 ;LISN
TEXT -432 -88 Left 2 ;LISN supply leads\nto the test circuit
TEXT -192 720 Left 2 !.OPTIONS ABSTOL=1e-6 VNTOL=1e-6 RELTOL=0.01\n.OPTIONS METHOD=Gear\n.OPTIONS GMIN=1e-12
TEXT 120 -64 Left 3 ;DUT
RECTANGLE Normal -496 592 -832 -32 2
RECTANGLE Normal -208 592 -464 -32 2
RECTANGLE Normal 1104 640 -176 -32 2
