Version 4
SHEET 1 1748 1000
WIRE -1088 48 -1232 48
WIRE -1024 48 -1088 48
WIRE -880 48 -944 48
WIRE -752 48 -880 48
WIRE -608 48 -672 48
WIRE -448 48 -528 48
WIRE -144 48 -192 48
WIRE -32 48 -144 48
WIRE 16 48 -32 48
WIRE 368 48 304 48
WIRE 368 64 368 48
WIRE -1088 80 -1088 48
WIRE -880 80 -880 48
WIRE -144 112 -144 48
WIRE -32 144 -32 48
WIRE 16 144 -32 144
WIRE 368 144 368 128
WIRE 368 144 304 144
WIRE 448 144 368 144
WIRE 480 144 448 144
WIRE 592 144 560 144
WIRE 672 144 592 144
WIRE 864 144 672 144
WIRE 1008 144 864 144
WIRE -880 160 -880 144
WIRE -880 160 -944 160
WIRE -1088 176 -1088 144
WIRE -880 176 -880 160
WIRE 672 192 672 144
WIRE 864 208 864 144
WIRE -1232 240 -1232 48
WIRE -448 240 -448 48
WIRE -416 240 -448 240
WIRE -192 240 -192 48
WIRE -192 240 -224 240
WIRE -144 240 -144 176
WIRE -96 240 -144 240
WIRE 16 240 -32 240
WIRE 592 240 592 144
WIRE 592 240 304 240
WIRE -1088 288 -1088 256
WIRE -976 288 -1088 288
WIRE -880 288 -880 256
WIRE -880 288 -976 288
WIRE -1088 320 -1088 288
WIRE -880 320 -880 288
WIRE 1008 320 1008 144
WIRE -976 336 -976 288
WIRE -416 336 -448 336
WIRE -192 336 -224 336
WIRE 672 336 672 272
WIRE 672 336 304 336
WIRE 864 352 864 288
WIRE -880 416 -880 400
WIRE -880 416 -944 416
WIRE -1088 432 -1088 400
WIRE -880 432 -880 416
WIRE 672 432 672 336
WIRE 864 464 864 432
WIRE -1232 528 -1232 320
WIRE -1088 528 -1088 496
WIRE -1088 528 -1232 528
WIRE -1024 528 -1088 528
WIRE -880 528 -880 496
WIRE -880 528 -944 528
WIRE -736 528 -880 528
WIRE -608 528 -656 528
WIRE -448 528 -448 336
WIRE -448 528 -528 528
WIRE -192 528 -192 336
WIRE -144 528 -144 240
WIRE -144 528 -192 528
WIRE -96 528 -144 528
WIRE 16 528 -16 528
WIRE 336 528 304 528
WIRE 592 528 592 240
WIRE 592 528 416 528
WIRE -144 624 -144 528
WIRE 160 624 160 576
WIRE 160 624 -144 624
WIRE 672 624 672 512
WIRE 672 624 160 624
WIRE 864 624 864 528
WIRE 864 624 672 624
WIRE 1008 624 1008 400
WIRE 1008 624 864 624
WIRE 448 656 448 144
WIRE 1008 656 1008 624
WIRE 448 752 448 720
WIRE 1008 752 1008 720
FLAG -944 160 V1
FLAG -944 416 V2
FLAG -976 336 0
FLAG 1008 752 0
FLAG 448 752 0
SYMBOL ind 464 160 R270
WINDOW 0 32 56 VTop 2
WINDOW 3 5 56 VBottom 2
SYMATTR InstName L1
SYMATTR Value 47µ
SYMATTR SpiceLine Rser=1
SYMBOL cap 848 464 R0
SYMATTR InstName C1
SYMATTR Value 4.7µ
SYMBOL res 656 416 R0
SYMATTR InstName R1
SYMATTR Value 301k
SYMBOL res 0 512 R90
WINDOW 0 0 56 VBottom 2
WINDOW 3 32 56 VTop 2
SYMATTR InstName R2
SYMATTR Value 18.2k
SYMBOL res 432 512 R90
WINDOW 0 0 56 VBottom 2
WINDOW 3 32 56 VTop 2
SYMATTR InstName R3
SYMATTR Value 100k
SYMBOL res 656 176 R0
SYMATTR InstName R4
SYMATTR Value 1.62Meg
SYMBOL res 992 304 R0
SYMATTR InstName Rload
SYMATTR Value 50
SYMBOL LT8618 160 240 R0
SYMATTR InstName U1
SYMBOL cap 352 64 R0
SYMATTR InstName C2
SYMATTR Value 47n
SYMBOL cap -32 224 R90
WINDOW 0 0 32 VBottom 2
WINDOW 3 32 32 VTop 2
SYMATTR InstName C3
SYMATTR Value 1µ
SYMBOL voltage -1232 224 R0
WINDOW 123 0 0 Left 2
WINDOW 39 0 0 Left 2
WINDOW 0 -66 31 Left 2
WINDOW 3 -12 428 Left 2
SYMATTR InstName V2
SYMATTR Value PULSE(0 24 1u 100us 0 1)
SYMBOL cap -160 112 R0
SYMATTR InstName C4
SYMATTR Value 22µ
SYMBOL ind -1040 64 R270
WINDOW 0 32 56 VTop 2
WINDOW 3 5 56 VBottom 2
SYMATTR InstName L2
SYMATTR Value 50µH
SYMBOL ind -768 64 R270
WINDOW 0 32 56 VTop 2
WINDOW 3 5 56 VBottom 2
SYMATTR InstName L3
SYMATTR Value 900nH
SYMBOL ind -928 512 R90
WINDOW 0 5 56 VBottom 2
WINDOW 3 32 56 VTop 2
SYMATTR InstName L4
SYMATTR Value 50µH
SYMBOL ind -640 512 R90
WINDOW 0 5 56 VBottom 2
WINDOW 3 32 56 VTop 2
SYMATTR InstName L5
SYMATTR Value 900nH
SYMBOL cap -1104 80 R0
SYMATTR InstName C5
SYMATTR Value 8µF
SYMBOL res -1104 160 R0
SYMATTR InstName R5
SYMATTR Value 5
SYMBOL cap -1104 432 R0
SYMATTR InstName C6
SYMATTR Value 8µF
SYMBOL res -1104 304 R0
SYMATTR InstName R6
SYMATTR Value 5
SYMBOL cap -896 80 R0
SYMATTR InstName C7
SYMATTR Value 250nF
SYMBOL res -896 160 R0
SYMATTR InstName R7
SYMATTR Value 50
SYMBOL cap -896 432 R0
SYMATTR InstName C8
SYMATTR Value 250nF
SYMBOL res -896 304 R0
SYMATTR InstName R8
SYMATTR Value 50
SYMBOL res -512 512 R90
WINDOW 0 0 56 VBottom 2
WINDOW 3 32 56 VTop 2
SYMATTR InstName R9
SYMATTR Value 0.001
SYMBOL cap 992 656 R0
SYMATTR InstName C9
SYMATTR Value 100p
SYMBOL cap 432 656 R0
SYMATTR InstName C10
SYMATTR Value 5p
SYMBOL res -512 32 R90
WINDOW 0 0 56 VBottom 2
WINDOW 3 32 56 VTop 2
SYMATTR InstName R10
SYMATTR Value 0.001
SYMBOL Contrib\\Wuerth\\1812_744235251_10000ohm -320 288 R0
WINDOW 38 -177 90 Left 2
WINDOW 0 -35 -81 Left 2
SYMATTR InstName CMC1
SYMBOL ind 848 192 R0
SYMATTR InstName L6
SYMATTR Value 0.781nH
SYMBOL res 848 336 R0
SYMATTR InstName R11
SYMATTR Value 3.82m
TEXT -456 912 Left 2 !.tran 2m startup uic
TEXT -1008 -64 Left 3 ;LISN
TEXT -728 -88 Left 2 ;LISN supply leads\nto the test circuit
TEXT -456 792 Left 2 !.OPTIONS ABSTOL=1e-6 VNTOL=1e-6 RELTOL=0.01\n.OPTIONS METHOD=Gear\n.OPTIONS GMIN=1e-12
TEXT 136 -64 Left 3 ;DUT
TEXT 288 792 Left 2 ;C10 is the parasitic capacitance\nbetween switching node and\nthe ground plane
TEXT 824 792 Left 2 ;C9 is the parasitic capaitance\nbetween DUT case and\nthe ground plane
TEXT 808 88 Left 2 ;Output Capacitor\nESR and ESL
RECTANGLE Normal -800 592 -1136 -32 2
RECTANGLE Normal -512 592 -768 -32 2
RECTANGLE Normal 1104 640 -496 -32 2
RECTANGLE Normal 992 432 816 192 2
